AndesApp/andes/cases/ieee39/ieee39.raw
0,   100.00, 33, 0, 1, 60.00     / PSS(R)E-33.11   FRI, APR 13 2018  10:22
NEW ENGLAND TEST SYSTEM, 39 BUSES, 9 GENERATORS, 2 Areas, 4 Zones
UPDATED BY JOSE CONTO
     1,'BUS1        ', 345.0000,1,   1,   1,   2,1.03145, -12.2668,1.05,0.95,1.10000,0.90000
     2,'BUS2        ', 345.0000,2,   1,   1,   2,1.00247, -14.3363,1.05,0.95,1.10000,0.90000
     3,'LOAD3       ', 345.0000,1,   1,   1,   2,0.95348, -19.1513,1.05,0.95,1.10000,0.90000
     4,'LOAD4       ', 345.0000,1,   1,   2,   2,0.93103, -19.2658,1.05,0.95,1.10000,0.90000
     5,'BUS5        ', 345.0000,1,   1,   2,   2,0.91744, -17.4681,1.05,0.95,1.10000,0.90000
     6,'BUS6        ', 345.0000,1,   1,   2,   2,0.91858, -16.7257,1.05,0.95,1.10000,0.90000
     7,'LOAD7       ', 345.0000,1,   1,   2,   2,0.86255, -18.6341,1.05,0.95,1.10000,0.90000
     8,'LOAD8       ', 345.0000,1,   1,   2,   2,0.87995, -19.0320,1.05,0.95,1.10000,0.90000
     9,'BUS9        ', 345.0000,1,   1,   2,   2,0.97880, -14.0303,1.05,0.95,1.10000,0.90000
    10,'BUS10       ', 345.0000,2,   1,   2,   2,0.95616, -14.6962,1.05,0.95,1.10000,0.90000
    11,'BUS11       ', 345.0000,1,   1,   2,   2,0.94295, -15.4844,1.05,0.95,1.10000,0.90000
    12,'LOAD12      ', 138.0000,1,   1,   2,   2,0.94491, -17.2039,1.05,0.95,1.10000,0.90000
    13,'BUS13       ', 345.0000,1,   1,   2,   2,0.95234, -15.5933,1.05,0.95,1.10000,0.90000
    14,'BUS14       ', 345.0000,1,   2,   3,   2,0.94651, -17.3550,1.05,0.95,1.10000,0.90000
    15,'LOAD15      ', 345.0000,1,   2,   3,   2,0.95647, -17.9924,1.05,0.95,1.10000,0.90000
    16,'LOAD16      ', 345.0000,1,   2,   3,   2,0.97673, -16.4894,1.05,0.95,1.10000,0.90000
    17,'BUS17       ', 345.0000,1,   1,   1,   2,0.97495, -17.6268,1.05,0.95,1.10000,0.90000
    18,'LOAD18      ', 345.0000,1,   1,   1,   2,0.96520, -18.6881,1.05,0.95,1.10000,0.90000
    19,'BUS19       ', 345.0000,1,   2,   4,   2,1.02958, -11.6791,1.05,0.95,1.10000,0.90000
    20,'LOAD20      ', 138.0000,2,   2,   4,   2,0.97981, -13.1611,1.05,0.95,1.10000,0.90000
    21,'LOAD21      ', 345.0000,1,   2,   3,   2,0.99298, -13.9095,1.05,0.95,1.10000,0.90000
    22,'BUS22       ', 345.0000,1,   2,   3,   2,1.02902,  -9.2532,1.05,0.95,1.10000,0.90000
    23,'LOAD23      ', 345.0000,1,   2,   4,   2,1.02329,  -9.4586,1.05,0.95,1.10000,0.90000
    24,'LOAD24      ', 345.0000,1,   2,   3,   2,0.98714, -16.3712,1.05,0.95,1.10000,0.90000
    25,'LOAD25      ', 345.0000,2,   1,   1,   2,1.02124, -13.4991,1.05,0.95,1.10000,0.90000
    26,'LOAD26      ', 345.0000,1,   1,   1,   2,1.01034, -15.2439,1.05,0.95,1.10000,0.90000
    27,'LOAD27      ', 345.0000,1,   1,   1,   2,0.98758, -17.5932,1.05,0.95,1.10000,0.90000
    28,'LOAD28      ', 345.0000,1,   2,   3,   2,1.02015, -11.5383,1.05,0.95,1.10000,0.90000
    29,'LOAD29      ', 345.0000,1,   2,   3,   2,1.02428,  -8.6481,1.05,0.95,1.10000,0.90000
    30,'GEN30       ',  34.5000,2,   1,   1,   1,1.00458, -11.6965,1.05,0.95,1.10000,0.90000
    31,'GEN31       ',  34.5000,2,   1,   2,   1,0.90644,  -9.0711,1.05,0.95,1.10000,0.90000
    32,'GEN32       ',  21.0000,2,   1,   2,   1,0.97522,  -6.1171,1.05,0.95,1.10000,0.90000
    33,'GEN33       ',  21.0000,2,   2,   4,   1,0.99720,  -6.4145,1.05,0.95,1.10000,0.90000
    34,'GEN34       ',  15.5000,2,   2,   4,   1,1.01230,  -7.9444,1.05,0.95,1.10000,0.90000
    35,'GEN35       ',  15.5000,2,   2,   3,   1,1.04930,  -4.1911,1.05,0.95,1.10000,0.90000
    36,'GEN36       ',  12.5000,2,   2,   4,   1,1.06350,  -1.4621,1.05,0.95,1.10000,0.90000
    37,'GEN37       ',  12.5000,2,   1,   1,   1,1.02780,  -6.5254,1.05,0.95,1.10000,0.90000
    38,'GEN38       ',  34.5000,2,   2,   3,   1,1.02650,  -1.4812,1.05,0.95,1.10000,0.90000
    39,'GEN39       ', 345.0000,3,   1,   2,   1,1.03000, -10.9600,1.05,0.95,1.10000,0.90000
0 / END OF BUS DATA, BEGIN LOAD DATA
     3,'1 ',1,   1,   1,   600.000,   250.000,     0.000,     0.000,     0.000,     0.000,   1,1,0
     4,'1 ',1,   1,   1,   450.000,   184.000,     0.000,     0.000,     0.000,     0.000,   1,1,0
     7,'1 ',1,   1,   1,   233.800,   840.000,     0.000,     0.000,     0.000,     0.000,   1,1,0
     8,'1 ',1,   1,   1,   522.000,   176.000,     0.000,     0.000,     0.000,     0.000,   1,1,0
    12,'1 ',1,   1,   1,   120.000,    30.000,     0.000,     0.000,     0.000,     0.000,   1,1,0
    15,'1 ',1,   1,   1,   320.000,   153.000,     0.000,     0.000,     0.000,     0.000,   1,1,0
    16,'1 ',1,   1,   1,   329.400,   323.000,     0.000,     0.000,     0.000,     0.000,   1,1,0
    18,'1 ',1,   1,   1,   158.000,    30.000,     0.000,     0.000,     0.000,     0.000,   1,1,0
    20,'1 ',1,   1,   1,   680.000,   103.000,     0.000,     0.000,     0.000,     0.000,   1,1,0
    21,'1 ',1,   1,   1,   274.000,   115.000,     0.000,     0.000,     0.000,     0.000,   1,1,0
    23,'1 ',1,   1,   1,   247.500,    84.600,     0.000,     0.000,     0.000,     0.000,   1,1,0
    24,'1 ',1,   1,   1,   308.600,   -92.200,     0.000,     0.000,     0.000,     0.000,   1,1,0
    25,'1 ',1,   1,   1,   224.000,    47.200,     0.000,     0.000,     0.000,     0.000,   1,1,0
    26,'1 ',1,   1,   1,   139.000,    17.000,     0.000,     0.000,     0.000,     0.000,   1,1,0
    27,'1 ',1,   1,   1,   281.000,    75.500,     0.000,     0.000,     0.000,     0.000,   1,1,0
    28,'1 ',1,   1,   1,   206.000,    27.600,     0.000,     0.000,     0.000,     0.000,   1,1,0
    29,'1 ',1,   1,   1,   283.500,   126.900,     0.000,     0.000,     0.000,     0.000,   1,1,0
    31,'1 ',1,   1,   1,    80.000,    40.000,     0.000,     0.000,     0.000,     0.000,   1,1,0
    39,'1 ',1,   1,   1,   400.000,   250.000,     0.000,     0.000,     0.000,     0.000,   1,1,0
0 / END OF LOAD DATA, BEGIN FIXED SHUNT DATA
0 / END OF FIXED SHUNT DATA, BEGIN GENERATOR DATA
    30,'1 ',   250.000,   153.180,   153.180,   -58.084,1.04750,     0,   275.000, 1.40000E-3, 7.92000E-3, 0.00000E+0, 0.00000E+0,1.00000,1,  100.0,   250.000,     0.000,   1,1.0000
    31,'1 ',   572.930,   429.804,   429.804,  -122.665,1.04000,     0,   836.000, 2.70000E-2, 2.97790E-1, 0.00000E+0, 0.00000E+0,1.00000,1,  100.0,   760.000,     0.000,   1,1.0000
    32,'1 ',   650.000,   446.722,   446.722,  -180.218,0.98310,     0,   843.700, 3.86000E-3, 2.56600E-2, 0.00000E+0, 0.00000E+0,1.00000,1,  100.0,   767.000,     0.000,   1,1.0000
    33,'1 ',   632.000,   242.940,   548.208,  -213.780,0.99720,     0,  1174.800, 2.22000E-3, 8.03000E-3, 0.00000E+0, 0.00000E+0,1.00000,1,  100.0,  1068.000,     0.000,   1,1.0000
    34,'1 ',   508.000,   229.094,   611.495,  -188.028,1.01230,     0,  1080.200, 1.40000E-3, 5.71000E-3, 0.00000E+0, 0.00000E+0,1.00000,1,  100.0,   982.000,     0.000,   1,1.0000
    35,'1 ',   650.000,   361.684,   593.788,  -234.972,1.04930,     0,  1085.700, 6.15000E-2, 4.65380E-1, 0.00000E+0, 0.00000E+0,1.00000,1,  100.0,   987.000,     0.000,   1,1.0000
    36,'1 ',   560.000,   185.829,   568.372,  -249.132,1.06350,     0,  1025.200, 2.68000E-3, 2.14100E-2, 0.00000E+0, 0.00000E+0,1.00000,1,  100.0,   932.000,     0.000,   1,1.0000
    37,'1 ',   540.000,   158.090,   443.468,  -216.122,1.02780,     0,   970.200, 6.86000E-3, 6.07600E-2, 0.00000E+0, 0.00000E+0,1.00000,1,  100.0,   882.000,     0.000,   1,1.0000
    38,'1 ',   830.000,   187.815,   834.775,  -356.889,1.02650,     0,  1684.100, 3.00000E-3, 1.17400E-2, 0.00000E+0, 0.00000E+0,1.00000,1,  100.0,  1531.000,     0.000,   1,1.0000
    39,'1 ',   720.876,   345.605,   574.850,  -173.261,1.03000,     0,  1199.000, 1.00000E-3, 2.60000E-3, 0.00000E+0, 0.00000E+0,1.00000,1,  100.0,  1090.000,     0.000,   1,1.0000
    10,'1 ',   100.000,    27.003,   295.816,  -295.816,1.00370,     0,  900.000, 0.00000E+0, 8.00000E-1, 0.00000E+0, 0.00000E+0,1.00000,1,  100.0,  900.000,     0.000,   1,1.0000,  ,  ,  ,  ,  ,  , 2, 0.9
    20,'1 ',   150.000,    27.003,   295.816,  -295.816,1.00370,     0,  900.000, 0.00000E+0, 8.00000E-1, 0.00000E+0, 0.00000E+0,1.00000,1,  100.0,  900.000,     0.000,   1,1.0000,  ,  ,  ,  ,  ,  , 2, 0.9
    2,'1 ',   200.000,    27.003,   295.816,  -295.816,1.00370,     0,  900.000, 0.00000E+0, 8.00000E-1, 0.00000E+0, 0.00000E+0,1.00000,1,  100.0,  900.000,     0.000,   1,1.0000,  ,  ,  ,  ,  ,  , 2, 0.9
    25,'1 ',   250.000,    27.003,   295.816,  -295.816,1.00370,     0,  900.000, 0.00000E+0, 8.00000E-1, 0.00000E+0, 0.00000E+0,1.00000,1,  100.0,  900.000,     0.000,   1,1.0000,  ,  ,  ,  ,  ,  , 2, 0.9
0 / END OF GENERATOR DATA, BEGIN BRANCH DATA
     1,     2,'1 ', 3.50000E-3, 4.11000E-2,   0.69870,  175.00,  192.00,  192.00,  0.00000,  0.00000,  0.00000,  0.00000,1,1,   0.00,   1,1.0000
     1,    39,'1 ', 1.00000E-3, 2.50000E-2,   0.75000,  125.00,  137.00,  137.00,  0.00000,  0.00000,  0.00000,  0.00000,1,1,   0.00,   1,1.0000
     2,     3,'1 ', 1.30000E-3, 1.51000E-2,   0.25720,  650.00,  715.00,  715.00,  0.00000,  0.00000,  0.00000,  0.00000,1,1,   0.00,   1,1.0000
     2,    25,'1 ', 7.00000E-3, 8.60000E-3,   0.14600,  260.00,  286.00,  286.00,  0.00000,  0.00000,  0.00000,  0.00000,1,1,   0.00,   1,1.0000
     3,     4,'1 ', 1.30000E-3, 2.13000E-2,   0.22140,  125.00,  137.00,  137.00,  0.00000,  0.00000,  0.00000,  0.00000,1,1,   0.00,   1,1.0000
     3,    18,'1 ', 1.10000E-3, 1.33000E-2,   0.21380,  125.00,  137.00,  137.00,  0.00000,  0.00000,  0.00000,  0.00000,1,1,   0.00,   1,1.0000
     4,     5,'1 ', 8.00000E-4, 1.28000E-2,   0.13420,  300.00,  330.00,  330.00,  0.00000,  0.00000,  0.00000,  0.00000,1,1,   0.00,   1,1.0000
     4,    14,'1 ', 8.00000E-4, 1.29000E-2,   0.13820,  300.00,  330.00,  330.00,  0.00000,  0.00000,  0.00000,  0.00000,1,1,   0.00,   1,1.0000
     5,     6,'1 ', 2.00000E-4, 2.60000E-3,   0.04340,  462.00,  508.00,  508.00,  0.00000,  0.00000,  0.00000,  0.00000,1,2,   0.00,   1,1.0000
     5,     8,'1 ', 8.00000E-4, 1.12000E-2,   0.14760,  462.00,  508.00,  508.00,  0.00000,  0.00000,  0.00000,  0.00000,1,1,   0.00,   1,1.0000
     6,     7,'1 ', 6.00000E-4, 9.20000E-3,   0.11300,  700.00,  770.00,  770.00,  0.00000,  0.00000,  0.00000,  0.00000,1,1,   0.00,   1,1.0000
     6,    11,'1 ', 7.00000E-4, 8.20000E-3,   0.13890,  466.00,  512.00,  512.00,  0.00000,  0.00000,  0.00000,  0.00000,1,1,   0.00,   1,1.0000
     7,     8,'1 ', 4.00000E-4, 4.60000E-3,   0.07800,  462.00,  508.00,  508.00,  0.00000,  0.00000,  0.00000,  0.00000,1,1,   0.00,   1,1.0000
     8,     9,'1 ', 2.30000E-3, 3.63000E-2,   0.38040,  466.00,  512.00,  512.00,  0.00000,  0.00000,  0.00000,  0.00000,1,1,   0.00,   1,1.0000
     9,    39,'1 ', 1.00000E-3, 2.50000E-2,   1.20000,  400.00,  440.00,  440.00,  0.00000,  0.00000,  0.00000,  0.00000,1,1,   0.00,   1,1.0000
    10,    11,'1 ', 4.00000E-4, 4.30000E-3,   0.07290,  462.00,  508.00,  508.00,  0.00000,  0.00000,  0.00000,  0.00000,1,1,   0.00,   1,1.0000
    10,    13,'1 ', 4.00000E-4, 4.30000E-3,   0.07290,  429.00,  471.00,  471.00,  0.00000,  0.00000,  0.00000,  0.00000,1,1,   0.00,   1,1.0000
    13,    14,'1 ', 9.00000E-4, 1.01000E-2,   0.17230,  380.00,  418.00,  418.00,  0.00000,  0.00000,  0.00000,  0.00000,1,1,   0.00,   1,1.0000
    14,    15,'1 ', 1.80000E-3, 2.17000E-2,   0.36600,  125.00,  137.00,  137.00,  0.00000,  0.00000,  0.00000,  0.00000,1,1,   0.00,   1,1.0000
    15,    16,'1 ', 9.00000E-4, 9.40000E-3,   0.17100,  429.00,  471.00,  471.00,  0.00000,  0.00000,  0.00000,  0.00000,1,1,   0.00,   1,1.0000
    16,    17,'1 ', 7.00000E-4, 8.90000E-3,   0.13420,  260.00,  286.00,  286.00,  0.00000,  0.00000,  0.00000,  0.00000,1,1,   0.00,   1,1.0000
    16,    19,'1 ', 1.60000E-3, 1.95000E-2,   0.30400,  552.00,  607.00,  607.00,  0.00000,  0.00000,  0.00000,  0.00000,1,1,   0.00,   1,1.0000
    16,    21,'1 ', 8.00000E-4, 1.35000E-2,   0.25480,  429.00,  471.00,  471.00,  0.00000,  0.00000,  0.00000,  0.00000,1,1,   0.00,   1,1.0000
    16,    24,'1 ', 3.00000E-4, 5.90000E-3,   0.06800,  230.00,  253.00,  253.00,  0.00000,  0.00000,  0.00000,  0.00000,1,1,   0.00,   1,1.0000
    17,    18,'1 ', 7.00000E-4, 8.20000E-3,   0.13190,  300.00,  330.00,  330.00,  0.00000,  0.00000,  0.00000,  0.00000,1,1,   0.00,   1,1.0000
    17,    27,'1 ', 1.30000E-3, 1.73000E-2,   0.32160,  125.00,  137.00,  137.00,  0.00000,  0.00000,  0.00000,  0.00000,1,1,   0.00,   1,1.0000
    21,    22,'1 ', 8.00000E-4, 1.40000E-2,   0.25650,  650.00,  715.00,  715.00,  0.00000,  0.00000,  0.00000,  0.00000,1,1,   0.00,   1,1.0000
    22,    23,'1 ', 6.00000E-4, 9.60000E-3,   0.18460,  125.00,  137.00,  137.00,  0.00000,  0.00000,  0.00000,  0.00000,1,1,   0.00,   1,1.0000
    23,    24,'1 ', 2.20000E-3, 3.50000E-2,   0.36100,  466.00,  512.00,  512.00,  0.00000,  0.00000,  0.00000,  0.00000,1,1,   0.00,   1,1.0000
    25,    26,'1 ', 3.20000E-3, 3.23000E-2,   0.51300,  125.00,  137.00,  137.00,  0.00000,  0.00000,  0.00000,  0.00000,1,1,   0.00,   1,1.0000
    26,    27,'1 ', 1.40000E-3, 1.47000E-2,   0.23960,  380.00,  418.00,  418.00,  0.00000,  0.00000,  0.00000,  0.00000,1,1,   0.00,   1,1.0000
    26,    28,'1 ', 4.30000E-3, 4.74000E-2,   0.78020,  175.00,  192.00,  192.00,  0.00000,  0.00000,  0.00000,  0.00000,1,1,   0.00,   1,1.0000
    26,    29,'1 ', 5.70000E-3, 6.25000E-2,   1.02900,  230.00,  253.00,  253.00,  0.00000,  0.00000,  0.00000,  0.00000,1,1,   0.00,   1,1.0000
    28,    29,'1 ', 1.40000E-3, 1.51000E-2,   0.24900,  400.00,  440.00,  440.00,  0.00000,  0.00000,  0.00000,  0.00000,1,1,   0.00,   1,1.0000
0 / END OF BRANCH DATA, BEGIN TRANSFORMER DATA
     2,    30,     0,'1 ',1,1,1, 0.00000E+0, 0.00000E+0,2,'            ',1,   1,1.0000,   0,1.0000,   0,1.0000,   0,1.0000,'            '
 0.00000E+0, 1.81000E-2,   100.00
1.02500,   0.000,   0.000,   380.00,   418.00,   418.00, 0,      0, 1.20000, 0.80000, 1.20000, 0.80000,   8, 0, 0.00000, 0.00000,  0.000
1.00000,   0.000
    31,     6,     0,'1 ',1,1,1, 0.00000E+0, 0.00000E+0,2,'            ',1,   1,1.0000,   0,1.0000,   0,1.0000,   0,1.0000,'            '
 0.00000E+0, 2.50000E-2,   100.00
0.90000,   0.000,   0.000,   700.00,   770.00,   770.00, 1,      6, 1.20000, 0.80000, 1.17000, 0.98000,   8, 0, 0.00000, 0.00000,  0.000
1.00000,   0.000
    10,    32,     0,'1 ',1,1,1, 0.00000E+0, 0.00000E+0,2,'            ',1,   1,1.0000,   0,1.0000,   0,1.0000,   0,1.0000,'            '
 0.00000E+0, 2.00000E-2,   100.00
1.07000,   0.000,   0.000,   816.00,   897.00,   897.00, 0,      0, 1.20000, 0.80000, 1.20000, 0.80000,   8, 0, 0.00000, 0.00000,  0.000
1.00000,   0.000
    12,    11,     0,'1 ',1,1,1, 0.00000E+0, 0.00000E+0,2,'            ',1,   1,1.0000,   0,1.0000,   0,1.0000,   0,1.0000,'            '
 1.60000E-3, 4.35000E-2,   100.00
1.00600,   0.000,   0.000,   125.00,   137.00,   137.00, 0,      0, 1.20000, 0.80000, 1.20000, 0.80000,   8, 0, 0.00000, 0.00000,  0.000
1.00000,   0.000
    12,    13,     0,'1 ',1,1,1, 0.00000E+0, 0.00000E+0,2,'            ',1,   1,1.0000,   0,1.0000,   0,1.0000,   0,1.0000,'            '
 1.60000E-3, 4.35000E-2,   100.00
1.00600,   0.000,   0.000,   125.00,   137.00,   137.00, 0,      0, 1.20000, 0.80000, 1.20000, 0.80000,   8, 0, 0.00000, 0.00000,  0.000
1.00000,   0.000
    19,    20,     0,'1 ',1,1,1, 0.00000E+0, 0.00000E+0,2,'            ',1,   1,1.0000,   0,1.0000,   0,1.0000,   0,1.0000,'            '
 7.00000E-4, 1.38000E-2,   100.00
1.06000,   0.000,   0.000,   230.00,   253.00,   253.00, 0,      0, 1.20000, 0.80000, 1.20000, 0.80000,   8, 0, 0.00000, 0.00000,  0.000
1.00000,   0.000
    19,    33,     0,'1 ',1,1,1, 0.00000E+0, 0.00000E+0,2,'            ',1,   1,1.0000,   0,1.0000,   0,1.0000,   0,1.0000,'            '
 7.00000E-4, 1.42000E-2,   100.00
1.07000,   0.000,   0.000,   700.00,   770.00,   770.00, 0,      0, 1.20000, 0.80000, 1.20000, 0.80000,   8, 0, 0.00000, 0.00000,  0.000
1.00000,   0.000
    20,    34,     0,'1 ',1,1,1, 0.00000E+0, 0.00000E+0,2,'            ',1,   1,1.0000,   0,1.0000,   0,1.0000,   0,1.0000,'            '
 9.00000E-4, 1.80000E-2,   100.00
1.00900,   0.000,   0.000,   560.00,   616.00,   616.00, 0,      0, 1.20000, 0.80000, 1.20000, 0.80000,   8, 0, 0.00000, 0.00000,  0.000
1.00000,   0.000
    22,    35,     0,'1 ',1,1,1, 0.00000E+0, 0.00000E+0,2,'            ',1,   1,1.0000,   0,1.0000,   0,1.0000,   0,1.0000,'            '
 0.00000E+0, 1.43000E-2,   100.00
1.02500,   0.000,   0.000,   715.00,   786.00,   786.00, 0,      0, 1.20000, 0.80000, 1.20000, 0.80000,   8, 0, 0.00000, 0.00000,  0.000
1.00000,   0.000
    23,    36,     0,'1 ',1,1,1, 0.00000E+0, 0.00000E+0,2,'            ',1,   1,1.0000,   0,1.0000,   0,1.0000,   0,1.0000,'            '
 5.00000E-4, 2.72000E-2,   100.00
1.00000,   0.000,   0.000,   560.00,   616.00,   616.00, 0,      0, 1.20000, 0.80000, 1.20000, 0.80000,   8, 0, 0.00000, 0.00000,  0.000
1.00000,   0.000
    25,    37,     0,'1 ',1,1,1, 0.00000E+0, 0.00000E+0,2,'            ',1,   1,1.0000,   0,1.0000,   0,1.0000,   0,1.0000,'            '
 6.00000E-4, 2.32000E-2,   100.00
1.02500,   0.000,   0.000,   552.00,   607.00,   607.00, 0,      0, 1.20000, 0.80000, 1.20000, 0.80000,   8, 0, 0.00000, 0.00000,  0.000
1.00000,   0.000
    29,    38,     0,'1 ',1,1,1, 0.00000E+0, 0.00000E+0,2,'            ',1,   1,1.0000,   0,1.0000,   0,1.0000,   0,1.0000,'            '
 8.00000E-4, 1.56000E-2,   100.00
1.02500,   0.000,   0.000,   837.00,   920.00,   920.00, 0,      0, 1.20000, 0.80000, 1.20000, 0.80000,   8, 0, 0.00000, 0.00000,  0.000
1.00000,   0.000
0 / END OF TRANSFORMER DATA, BEGIN AREA DATA
   1,     0,     0.000,    10.000,'WEST        '
   2,     0,     0.000,    10.000,'EAST        '
0 / END OF AREA DATA, BEGIN TWO-TERMINAL DC DATA
0 / END OF TWO-TERMINAL DC DATA, BEGIN VSC DC LINE DATA
0 / END OF VSC DC LINE DATA, BEGIN IMPEDANCE CORRECTION DATA
0 / END OF IMPEDANCE CORRECTION DATA, BEGIN MULTI-TERMINAL DC DATA
0 / END OF MULTI-TERMINAL DC DATA, BEGIN MULTI-SECTION LINE DATA
0 / END OF MULTI-SECTION LINE DATA, BEGIN ZONE DATA
   1,'NWEST       '
   2,'SWEST       '
   3,'NEAST       '
   4,'SEAST       '
0 / END OF ZONE DATA, BEGIN INTER-AREA TRANSFER DATA
0 / END OF INTER-AREA TRANSFER DATA, BEGIN OWNER DATA
   1,'GENS        '
   2,'TRANSMISSION'
0 / END OF OWNER DATA, BEGIN FACTS DEVICE DATA
0 / END OF FACTS DEVICE DATA, BEGIN SWITCHED SHUNT DATA
     4,1,0,1,1.02000,0.95000,     0,  100.0,'            ',  100.00, 4,   25.00
     5,1,0,1,1.03000,0.96000,     0,  100.0,'            ',  200.00, 5,   20.00, 5,   20.00
0 / END OF SWITCHED SHUNT DATA, BEGIN GNE DATA
0 / END OF GNE DATA, BEGIN INDUCTION MACHINE DATA
0 / END OF INDUCTION MACHINE DATA
Q
